/*--------------------------------*- C++ -*----------------------------------*\
  =========                 |
  \\      /  F ield         | OpenFOAM: The Open Source CFD Toolbox
   \\    /   O peration     | Website:  https://openfoam.org
    \\  /    A nd           | Version:  6
     \\/     M anipulation  |
\*---------------------------------------------------------------------------*/
FoamFile
{
    version     2.0;
    format      ascii;
    class       polyBoundaryMesh;
    location    "constant/polyMesh";
    object      boundary;
}
// * * * * * * * * * * * * * * * * * * * * * * * * * * * * * * * * * * * * * //

5
(
    inlet
    {
        type            mappedPatch;
        inGroups        1(mappedPatch);
        nFaces          25;
        startFace       3650;
        sampleMode      nearestCell;
        sampleRegion    region0;
        samplePatch     none;
        offsetMode      uniform;
        offset          (0 0.1 0);
    }
    outlet
    {
        type            patch;
        nFaces          25;
        startFace       3675;
    }
    wall1
    {
        type            wall;
        inGroups        1(wall);
        nFaces          75;
        startFace       3700;
    }
    wall2
    {
        type            wall;
        inGroups        1(wall);
        nFaces          75;
        startFace       3775;
    }
    defaultFaces
    {
        type            empty;
        inGroups        1(empty);
        nFaces          3750;
        startFace       3850;
    }
)

// ************************************************************************* //
